&share
analdate      = '2017-09-10_00:00:00'
datapath      = './'
debug         = T
is_fcst_model = T
/

&bufrio
bufr_filepath       = './prepbufr.fv3'
!bufr_info_filepath = '../demo/fcst-model/bufr_info.json'
bufr_info_filepath  = './bufr_info.json'
!bufr_tblpath       = '../demo/prepobs_prep.bufrtable'
bufr_tblpath        = './prepobs_prep.bufrtable'
mask_land           = T
max_orog_hght       = 0.0
/

&fcst_mdl
fv3_dyns_filename   = '/Volumes/Time Machine/regression-tests/obs-preproc/fcst-model/fv3/fv_core.res.tile1.nc', '/Volumes/Time Machine/regression-tests/obs-preproc/fcst-model/fv3/fv_core.res.tile2.nc', '/Volumes/Time Machine/regression-tests/obs-preproc/fcst-model/fv3/fv_core.res.tile3.nc', '/Volumes/Time Machine/regression-tests/obs-preproc/fcst-model/fv3/fv_core.res.tile4.nc', '/Volumes/Time Machine/regression-tests/obs-preproc/fcst-model/fv3/fv_core.res.tile5.nc', '/Volumes/Time Machine/regression-tests/obs-preproc/fcst-model/fv3/fv_core.res.tile6.nc'
fv3_orog_filename   = '/Volumes/Time Machine/regression-tests/obs-preproc/fcst-model/fv3/C96_oro_data.tile1.nc','/Volumes/Time Machine/regression-tests/obs-preproc/fcst-model/fv3/C96_oro_data.tile2.nc','/Volumes/Time Machine/regression-tests/obs-preproc/fcst-model/fv3/C96_oro_data.tile3.nc','/Volumes/Time Machine/regression-tests/obs-preproc/fcst-model/fv3/C96_oro_data.tile4.nc','/Volumes/Time Machine/regression-tests/obs-preproc/fcst-model/fv3/C96_oro_data.tile5.nc','/Volumes/Time Machine/regression-tests/obs-preproc/fcst-model/fv3/C96_oro_data.tile6.nc'
fv3_static_filename = '/Volumes/Time Machine/regression-tests/obs-preproc/fcst-model/fv3/atmos_static.nest02.tile7.nc'
fv3_tracer_filename = '/Volumes/Time Machine/regression-tests/obs-preproc/fcst-model/fv3/fv_tracer.res.tile1.nc','/Volumes/Time Machine/regression-tests/obs-preproc/fcst-model/fv3/fv_tracer.res.tile2.nc','/Volumes/Time Machine/regression-tests/obs-preproc/fcst-model/fv3/fv_tracer.res.tile3.nc','/Volumes/Time Machine/regression-tests/obs-preproc/fcst-model/fv3/fv_tracer.res.tile4.nc','/Volumes/Time Machine/regression-tests/obs-preproc/fcst-model/fv3/fv_tracer.res.tile5.nc','/Volumes/Time Machine/regression-tests/obs-preproc/fcst-model/fv3/fv_tracer.res.tile6.nc'
is_fv3              = T
is_global           = T
is_rotate_winds     = T
sample_radius       = 100000.0
/

&recon
/

&sonde
/

&tc
is_relocate     = T
tcinfo_filename = '/Volumes/Time Machine/regression-tests/obs-preproc/fcst-model/fv3/obs-preproc.tcv.output'
/

&wmm
/